&nhyd_model
    config_time_integration = 'split_explicit'
/
